results/feeder_voltage_profile.csv
Bus,Minimum Voltage,Maximum Voltage
632,1.0289441322887496,1.0325176731676966
633,1.0270166154456521,1.030582775048208
634,1.0084186207663994,1.01205165768667
645,1.0197285920694914,1.023309848961127
646,1.018012645242478,1.0215852623811643
650,0.99997083981511,1.000018395626716
652,0.9753335082930491,1.0050237826592228
671,1.040274982072703,1.0470411237877728
675,1.0426313134570548,1.0493476730765992
692,1.0402749809339873,1.0470411226561642
